src/test/resources/transformerReactivePowerControlOuterLoopReport.txt
+ Test Report
   + Load flow on network 'two-windings-transformer-control'
      + Network CC0 SC0
         + Network info
            Network has 3 buses and 2 branches
            Network balance: active generation=25 MW, active load=16.2 MW, reactive generation=0 MVar, reactive load=7.5 MVar
            Angle reference bus: VL_2_0
            Slack bus: VL_2_0
         + Newton Raphson on Network CC0 SC0
            No outer loops have been launched
            + Initial mismatch
               Newton-Raphson norm |f(x)|=0.274368
               + Largest P mismatch: -24.991288 MW
                  Bus Id: VL_1_0 (nominalVoltage=132kV)
                  Bus V: 1 pu, 0 rad
                  Bus injection: 0.008712 MW, 0 MVar
               + Largest Q mismatch: 4.477734 MVar
                  Bus Id: VL_2_0 (nominalVoltage=132kV)
                  Bus V: 1 pu, 0 rad
                  Bus injection: 0.823631 MW, -3.022266 MVar
               + Largest V mismatch: -0.022727 p.u.
                  Bus Id: VL_1_0 (nominalVoltage=132kV)
                  Bus V: 1 pu, 0 rad
                  Bus injection: 0.008712 MW, 0 MVar
            + Iteration 1 mismatch
               Newton-Raphson norm |f(x)|=0.018259
               + Largest P mismatch: 1.365638 MW
                  Bus Id: VL_3_0 (nominalVoltage=33kV)
                  Bus V: 0.852441 pu, -0.051021 rad
                  Bus injection: -3.634362 MW, 0.41189 MVar
               + Largest Q mismatch: 0.512485 MVar
                  Bus Id: VL_2_0 (nominalVoltage=132kV)
                  Bus V: 1.017582 pu, 0 rad
                  Bus injection: -16.760055 MW, -6.987515 MVar
               + Largest V mismatch: 0 p.u.
                  Bus Id: VL_1_0 (nominalVoltage=132kV)
                  Bus V: 1.022727 pu, 0.013961 rad
                  Bus injection: 26.018142 MW, 6.615251 MVar
            + Iteration 2 mismatch
               Newton-Raphson norm |f(x)|=0.000638
               + Largest P mismatch: 0.059804 MW
                  Bus Id: VL_3_0 (nominalVoltage=33kV)
                  Bus V: 0.819638 pu, -0.060842 rad
                  Bus injection: -4.940196 MW, 0.015968 MVar
               + Largest Q mismatch: 0.015968 MVar
                  Bus Id: VL_3_0 (nominalVoltage=33kV)
                  Bus V: 0.819638 pu, -0.060842 rad
                  Bus injection: -4.940196 MW, 0.015968 MVar
               + Largest V mismatch: 0 p.u.
                  Bus Id: VL_1_0 (nominalVoltage=132kV)
                  Bus V: 1.022727 pu, 0.013346 rad
                  Bus injection: 25.000607 MW, 7.653111 MVar
            + Iteration 3 mismatch
               Newton-Raphson norm |f(x)|=0.000001
               + Largest P mismatch: 0.000135 MW
                  Bus Id: VL_3_0 (nominalVoltage=33kV)
                  Bus V: 0.818093 pu, -0.061359 rad
                  Bus injection: -4.999865 MW, 0.000032 MVar
               + Largest Q mismatch: 0.000037 MVar
                  Bus Id: VL_2_0 (nominalVoltage=132kV)
                  Bus V: 1.017028 pu, 0 rad
                  Bus injection: -14.088261 MW, -7.499963 MVar
               + Largest V mismatch: 0 p.u.
                  Bus Id: VL_1_0 (nominalVoltage=132kV)
                  Bus V: 1.022727 pu, 0.013344 rad
                  Bus injection: 25 MW, 7.694058 MVar
         + Outer loop DistributedSlack
            + Outer loop iteration 1
               Slack bus active power (-2.888261 MW) distributed in 1 distribution iteration(s)
         + Newton Raphson on Network CC0 SC0
            Newton-Raphson of outer loop iteration 1 of type DistributedSlack
            + Initial mismatch
               Newton-Raphson norm |f(x)|=0.028883
               + Largest P mismatch: 2.888261 MW
                  Bus Id: VL_1_0 (nominalVoltage=132kV)
                  Bus V: 1.022727 pu, 0.013344 rad
                  Bus injection: 25 MW, 7.694058 MVar
               + Largest Q mismatch: 0.000037 MVar
                  Bus Id: VL_2_0 (nominalVoltage=132kV)
                  Bus V: 1.017028 pu, 0 rad
                  Bus injection: -14.088261 MW, -7.499963 MVar
               + Largest V mismatch: 0 p.u.
                  Bus Id: VL_1_0 (nominalVoltage=132kV)
                  Bus V: 1.022727 pu, 0.013344 rad
                  Bus injection: 25 MW, 7.694058 MVar
            + Iteration 1 mismatch
               Newton-Raphson norm |f(x)|=0.000023
               + Largest P mismatch: -0.000334 MW
                  Bus Id: VL_1_0 (nominalVoltage=132kV)
                  Bus V: 1.022727 pu, 0.011752 rad
                  Bus injection: 22.111404 MW, 7.616219 MVar
               + Largest Q mismatch: 0.002268 MVar
                  Bus Id: VL_2_0 (nominalVoltage=132kV)
                  Bus V: 1.017221 pu, 0 rad
                  Bus injection: -11.205673 MW, -7.497732 MVar
               + Largest V mismatch: 0 p.u.
                  Bus Id: VL_1_0 (nominalVoltage=132kV)
                  Bus V: 1.022727 pu, 0.011752 rad
                  Bus injection: 22.111404 MW, 7.616219 MVar
         Outer loop VoltageMonitoring
         Outer loop ReactiveLimits
         + Outer loop IncrementalTransformerReactivePowerControl
            + Outer loop iteration 2
               1 reactive power-controlled branches are outside of their target deadbands
               1 transformers changed tap position
            + Outer loop iteration 3
               1 reactive power-controlled branches are outside of their target deadbands
               1 transformers changed tap position
               1 transformers reached their tap maximum position
            + Outer loop iteration 4
               1 reactive power-controlled branches are outside of their target deadbands
         + Newton Raphson on Network CC0 SC0
            Newton-Raphson of outer loop iteration 2 of type IncrementalTransformerReactivePowerControl
            + Initial mismatch
               Newton-Raphson norm |f(x)|=0.081872
               + Largest P mismatch: -6.141369 MW
                  Bus Id: VL_3_0 (nominalVoltage=33kV)
                  Bus V: 0.818288 pu, -0.061333 rad
                  Bus injection: -11.141369 MW, -3.119318 MVar
               + Largest Q mismatch: 4.425324 MVar
                  Bus Id: VL_2_0 (nominalVoltage=132kV)
                  Bus V: 1.017221 pu, 0 rad
                  Bus injection: -0.616352 MW, -3.074676 MVar
               + Largest V mismatch: 0 p.u.
                  Bus Id: VL_1_0 (nominalVoltage=132kV)
                  Bus V: 1.022727 pu, 0.011752 rad
                  Bus injection: 22.111404 MW, 7.616219 MVar
            + Iteration 1 mismatch
               Newton-Raphson norm |f(x)|=0.027502
               + Largest P mismatch: 2.510689 MW
                  Bus Id: VL_3_0 (nominalVoltage=33kV)
                  Bus V: 1.040693 pu, -0.035807 rad
                  Bus injection: -2.489311 MW, 1.086017 MVar
               + Largest Q mismatch: 1.086017 MVar
                  Bus Id: VL_3_0 (nominalVoltage=33kV)
                  Bus V: 1.040693 pu, -0.035807 rad
                  Bus injection: -2.489311 MW, 1.086017 MVar
               + Largest V mismatch: 0 p.u.
                  Bus Id: VL_1_0 (nominalVoltage=132kV)
                  Bus V: 1.022727 pu, 0.011848 rad
                  Bus injection: 22.111915 MW, 5.763483 MVar
            + Iteration 2 mismatch
               Newton-Raphson norm |f(x)|=0.00138
               + Largest P mismatch: 0.127238 MW
                  Bus Id: VL_3_0 (nominalVoltage=33kV)
                  Bus V: 0.990933 pu, -0.043021 rad
                  Bus injection: -4.872762 MW, 0.049862 MVar
               + Largest Q mismatch: 0.049862 MVar
                  Bus Id: VL_3_0 (nominalVoltage=33kV)
                  Bus V: 0.990933 pu, -0.043021 rad
                  Bus injection: -4.872762 MW, 0.049862 MVar
               + Largest V mismatch: 0 p.u.
                  Bus Id: VL_1_0 (nominalVoltage=132kV)
                  Bus V: 1.022727 pu, 0.011772 rad
                  Bus injection: 22.11185 MW, 7.236219 MVar
            + Iteration 3 mismatch
               Newton-Raphson norm |f(x)|=0.000004
               + Largest P mismatch: 0.000398 MW
                  Bus Id: VL_3_0 (nominalVoltage=33kV)
                  Bus V: 0.988182 pu, -0.043511 rad
                  Bus injection: -4.999602 MW, 0.00014 MVar
               + Largest Q mismatch: 0.00014 MVar
                  Bus Id: VL_3_0 (nominalVoltage=33kV)
                  Bus V: 0.988182 pu, -0.043511 rad
                  Bus injection: -4.999602 MW, 0.00014 MVar
               + Largest V mismatch: 0 p.u.
                  Bus Id: VL_1_0 (nominalVoltage=132kV)
                  Bus V: 1.022727 pu, 0.011768 rad
                  Bus injection: 22.111739 MW, 7.318486 MVar
         + Newton Raphson on Network CC0 SC0
            Newton-Raphson of outer loop iteration 3 of type IncrementalTransformerReactivePowerControl
            + Initial mismatch
               Newton-Raphson norm |f(x)|=0.031683
               + Largest P mismatch: -2.449384 MW
                  Bus Id: VL_3_0 (nominalVoltage=33kV)
                  Bus V: 0.988182 pu, -0.043511 rad
                  Bus injection: -7.449384 MW, -1.299583 MVar
               + Largest Q mismatch: 1.532895 MVar
                  Bus Id: VL_2_0 (nominalVoltage=132kV)
                  Bus V: 1.017388 pu, 0 rad
                  Bus injection: -5.814404 MW, -5.967105 MVar
               + Largest V mismatch: 0 p.u.
                  Bus Id: VL_1_0 (nominalVoltage=132kV)
                  Bus V: 1.022727 pu, 0.011768 rad
                  Bus injection: 22.111739 MW, 7.318486 MVar
            + Iteration 1 mismatch
               Newton-Raphson norm |f(x)|=0.001922
               + Largest P mismatch: 0.173099 MW
                  Bus Id: VL_3_0 (nominalVoltage=33kV)
                  Bus V: 1.047089 pu, -0.038933 rad
                  Bus injection: -4.826901 MW, 0.082377 MVar
               + Largest Q mismatch: 0.082377 MVar
                  Bus Id: VL_3_0 (nominalVoltage=33kV)
                  Bus V: 1.047089 pu, -0.038933 rad
                  Bus injection: -4.826901 MW, 0.082377 MVar
               + Largest V mismatch: 0 p.u.
                  Bus Id: VL_1_0 (nominalVoltage=132kV)
                  Bus V: 1.022727 pu, 0.011778 rad
                  Bus injection: 22.111741 MW, 7.110862 MVar
            + Iteration 2 mismatch
               Newton-Raphson norm |f(x)|=0.000007
               + Largest P mismatch: 0.000665 MW
                  Bus Id: VL_3_0 (nominalVoltage=33kV)
                  Bus V: 1.043448 pu, -0.039329 rad
                  Bus injection: -4.999335 MW, 0.000286 MVar
               + Largest Q mismatch: 0.000286 MVar
                  Bus Id: VL_3_0 (nominalVoltage=33kV)
                  Bus V: 1.043448 pu, -0.039329 rad
                  Bus injection: -4.999335 MW, 0.000286 MVar
               + Largest V mismatch: 0 p.u.
                  Bus Id: VL_1_0 (nominalVoltage=132kV)
                  Bus V: 1.022727 pu, 0.011773 rad
                  Bus injection: 22.11174 MW, 7.223627 MVar
         + Outer loop DistributedSlack
            + Outer loop iteration 4
               Slack bus active power (2.379903 MW) distributed in 1 distribution iteration(s)
         + Newton Raphson on Network CC0 SC0
            Newton-Raphson of outer loop iteration 4 of type DistributedSlack
            + Initial mismatch
               Newton-Raphson norm |f(x)|=0.023799
               + Largest P mismatch: -2.379902 MW
                  Bus Id: VL_1_0 (nominalVoltage=132kV)
                  Bus V: 1.022727 pu, 0.011773 rad
                  Bus injection: 22.11174 MW, 7.223627 MVar
               + Largest Q mismatch: 0.000286 MVar
                  Bus Id: VL_3_0 (nominalVoltage=33kV)
                  Bus V: 1.043448 pu, -0.039329 rad
                  Bus injection: -4.999335 MW, 0.000286 MVar
               + Largest V mismatch: 0 p.u.
                  Bus Id: VL_1_0 (nominalVoltage=132kV)
                  Bus V: 1.022727 pu, 0.011773 rad
                  Bus injection: 22.11174 MW, 7.223627 MVar
            + Iteration 1 mismatch
               Newton-Raphson norm |f(x)|=0.000016
               + Largest P mismatch: -0.000222 MW
                  Bus Id: VL_1_0 (nominalVoltage=132kV)
                  Bus V: 1.022727 pu, 0.013084 rad
                  Bus injection: 24.49142 MW, 7.284141 MVar
               + Largest Q mismatch: 0.001539 MVar
                  Bus Id: VL_2_0 (nominalVoltage=132kV)
                  Bus V: 1.017284 pu, 0 rad
                  Bus injection: -11.194887 MW, -7.498461 MVar
               + Largest V mismatch: 0 p.u.
                  Bus Id: VL_1_0 (nominalVoltage=132kV)
                  Bus V: 1.022727 pu, 0.013084 rad
                  Bus injection: 24.49142 MW, 7.284141 MVar
         Outer loop VoltageMonitoring
         Outer loop ReactiveLimits
         + Outer loop IncrementalTransformerReactivePowerControl
            + Outer loop iteration 5
               1 reactive power-controlled branches are outside of their target deadbands
         Outer loop DistributedSlack
         Outer loop VoltageMonitoring
         Outer loop ReactiveLimits
         + Outer loop IncrementalTransformerReactivePowerControl
            + Outer loop iteration 5
               1 reactive power-controlled branches are outside of their target deadbands
         AC load flow completed successfully (solverStatus=CONVERGED, outerloopStatus=STABLE)
